# generated using pymatgen
data_Li59Nb65O192
_symmetry_space_group_name_H-M   'P 1'
_cell_length_a   15.14696010
_cell_length_b   15.14671043
_cell_length_c   15.14688795
_cell_angle_alpha   86.00056094
_cell_angle_beta   86.00073700
_cell_angle_gamma   86.00082656
_symmetry_Int_Tables_number   1
_chemical_formula_structural   Li59Nb65O192
_chemical_formula_sum   'Li59 Nb65 O192'
_cell_volume   3450.83792321
_cell_formula_units_Z   1
loop_
 _symmetry_equiv_pos_site_id
 _symmetry_equiv_pos_as_xyz
  1  'x, y, z'
loop_
 _atom_type_symbol
 _atom_type_oxidation_number
  Li+  1.0
  Nb5+  5.0
  O2-  -2.0
loop_
 _atom_site_type_symbol
 _atom_site_label
 _atom_site_symmetry_multiplicity
 _atom_site_fract_x
 _atom_site_fract_y
 _atom_site_fract_z
 _atom_site_occupancy
  Li+  Li0  1  0.25001900  0.25001800  0.25002000  1
  Li+  Li1  1  0.25001900  0.25001800  0.75002000  1
  Li+  Li2  1  0.25001900  0.75001800  0.25002000  1
  Li+  Li3  1  0.25001900  0.75001800  0.75002000  1
  Li+  Li4  1  0.75001900  0.25001800  0.25002000  1
  Li+  Li5  1  0.75001900  0.25001800  0.75002000  1
  Li+  Li6  1  0.75001900  0.75001800  0.25002000  1
  Li+  Li7  1  0.75001900  0.75001800  0.75002000  1
  Li+  Li8  1  0.00001900  0.25001800  0.00002000  1
  Li+  Li9  1  0.00001900  0.25001800  0.50002000  1
  Li+  Li10  1  0.00001900  0.75001800  0.00002000  1
  Li+  Li11  1  0.00001900  0.75001800  0.50002000  1
  Li+  Li12  1  0.50001900  0.25001800  0.00002000  1
  Li+  Li13  1  0.50001900  0.25001800  0.50002000  0.3333
  Li+  Li14  1  0.50001900  0.75001800  0.00002000  1
  Li+  Li15  1  0.50001900  0.75001800  0.50002000  0.3333
  Li+  Li16  1  0.25001900  0.00001800  0.00002000  1
  Li+  Li17  1  0.25001900  0.00001800  0.50002000  1
  Li+  Li18  1  0.25001900  0.50001800  0.00002000  1
  Li+  Li19  1  0.25001900  0.50001800  0.50002000  0.3333
  Li+  Li20  1  0.75001900  0.00001800  0.00002000  1
  Li+  Li21  1  0.75001900  0.00001800  0.50002000  1
  Li+  Li22  1  0.75001900  0.50001800  0.00002000  1
  Li+  Li23  1  0.75001900  0.50001800  0.50002000  0.3333
  Li+  Li24  1  0.00001900  0.00001800  0.25002000  1
  Li+  Li25  1  0.00001900  0.00001800  0.75002000  1
  Li+  Li26  1  0.00001900  0.50001800  0.25002000  1
  Li+  Li27  1  0.00001900  0.50001800  0.75002000  1
  Li+  Li28  1  0.50001900  0.00001800  0.25002000  1
  Li+  Li29  1  0.50001900  0.00001800  0.75002000  1
  Li+  Li30  1  0.50001900  0.50001800  0.25002000  0.3333
  Li+  Li31  1  0.50001900  0.50001800  0.75002000  0.3333
  Li+  Li32  1  0.00001800  0.00001900  0.00001900  1
  Li+  Li33  1  0.00001800  0.00001900  0.50001900  1
  Li+  Li34  1  0.00001800  0.50001900  0.00001900  1
  Li+  Li35  1  0.00001800  0.50001900  0.50001900  1
  Li+  Li36  1  0.50001800  0.00001900  0.00001900  1
  Li+  Li37  1  0.50001800  0.00001900  0.50001900  1
  Li+  Li38  1  0.50001800  0.50001900  0.00001900  1
  Li+  Li39  1  0.25001800  0.00001900  0.25001900  1
  Li+  Li40  1  0.25001800  0.00001900  0.75001900  1
  Li+  Li41  1  0.25001800  0.50001900  0.25001900  1
  Li+  Li42  1  0.25001800  0.50001900  0.75001900  1
  Li+  Li43  1  0.75001800  0.00001900  0.25001900  1
  Li+  Li44  1  0.75001800  0.00001900  0.75001900  1
  Li+  Li45  1  0.75001800  0.50001900  0.25001900  1
  Li+  Li46  1  0.75001800  0.50001900  0.75001900  1
  Li+  Li47  1  0.00001800  0.25001900  0.25001900  1
  Li+  Li48  1  0.00001800  0.25001900  0.75001900  1
  Li+  Li49  1  0.00001800  0.75001900  0.25001900  1
  Li+  Li50  1  0.00001800  0.75001900  0.75001900  1
  Li+  Li51  1  0.50001800  0.25001900  0.25001900  1
  Li+  Li52  1  0.50001800  0.25001900  0.75001900  1
  Li+  Li53  1  0.50001800  0.75001900  0.25001900  1
  Li+  Li54  1  0.50001800  0.75001900  0.75001900  1
  Li+  Li55  1  0.25001800  0.25001900  0.00001900  1
  Li+  Li56  1  0.25001800  0.25001900  0.50001900  1
  Li+  Li57  1  0.25001800  0.75001900  0.00001900  1
  Li+  Li58  1  0.25001800  0.75001900  0.50001900  1
  Li+  Li59  1  0.75001800  0.25001900  0.00001900  1
  Li+  Li60  1  0.75001800  0.25001900  0.50001900  1
  Li+  Li61  1  0.75001800  0.75001900  0.00001900  1
  Li+  Li62  1  0.75001800  0.75001900  0.50001900  1
  Nb5+  Nb63  1  0.50001800  0.50001900  0.50001900  1
  Nb5+  Nb64  1  0.10874500  0.10875000  0.10874600  1
  Nb5+  Nb65  1  0.10874500  0.10875000  0.60874600  1
  Nb5+  Nb66  1  0.10874500  0.60875000  0.10874600  1
  Nb5+  Nb67  1  0.10874500  0.60875000  0.60874600  1
  Nb5+  Nb68  1  0.60874500  0.10875100  0.10874600  1
  Nb5+  Nb69  1  0.60874500  0.10875000  0.60874600  1
  Nb5+  Nb70  1  0.60874500  0.60875000  0.10874600  1
  Nb5+  Nb71  1  0.60874500  0.60875000  0.60874600  1
  Nb5+  Nb72  1  0.35874500  0.10875000  0.35874600  1
  Nb5+  Nb73  1  0.35874400  0.10875000  0.85874600  1
  Nb5+  Nb74  1  0.35874500  0.60875000  0.35874600  1
  Nb5+  Nb75  1  0.35874500  0.60875000  0.85874600  1
  Nb5+  Nb76  1  0.85874500  0.10875000  0.35874600  1
  Nb5+  Nb77  1  0.85874500  0.10875000  0.85874600  1
  Nb5+  Nb78  1  0.85874500  0.60875000  0.35874600  1
  Nb5+  Nb79  1  0.85874500  0.60875000  0.85874600  1
  Nb5+  Nb80  1  0.10874500  0.35875000  0.35874600  1
  Nb5+  Nb81  1  0.10874500  0.35875000  0.85874600  1
  Nb5+  Nb82  1  0.10874500  0.85875000  0.35874600  1
  Nb5+  Nb83  1  0.10874500  0.85875000  0.85874600  1
  Nb5+  Nb84  1  0.60874500  0.35875000  0.35874600  1
  Nb5+  Nb85  1  0.60874500  0.35875000  0.85874600  1
  Nb5+  Nb86  1  0.60874500  0.85875000  0.35874600  1
  Nb5+  Nb87  1  0.60874500  0.85875000  0.85874600  1
  Nb5+  Nb88  1  0.35874500  0.35875000  0.10874600  1
  Nb5+  Nb89  1  0.35874500  0.35875000  0.60874600  1
  Nb5+  Nb90  1  0.35874400  0.85875000  0.10874600  1
  Nb5+  Nb91  1  0.35874500  0.85875000  0.60874600  1
  Nb5+  Nb92  1  0.85874500  0.35875000  0.10874600  1
  Nb5+  Nb93  1  0.85874400  0.35875000  0.60874600  1
  Nb5+  Nb94  1  0.85874500  0.85875000  0.10874600  1
  Nb5+  Nb95  1  0.85874500  0.85875000  0.60874600  1
  Nb5+  Nb96  1  0.35874600  0.35874800  0.35874400  1
  Nb5+  Nb97  1  0.35874600  0.35874900  0.85874400  1
  Nb5+  Nb98  1  0.35874600  0.85874800  0.35874400  1
  Nb5+  Nb99  1  0.35874600  0.85874900  0.85874400  1
  Nb5+  Nb100  1  0.85874600  0.35874800  0.35874400  1
  Nb5+  Nb101  1  0.85874600  0.35874800  0.85874400  1
  Nb5+  Nb102  1  0.85874600  0.85874800  0.35874400  1
  Nb5+  Nb103  1  0.85874600  0.85874800  0.85874400  1
  Nb5+  Nb104  1  0.10874600  0.35874800  0.10874400  1
  Nb5+  Nb105  1  0.10874600  0.35874900  0.60874400  1
  Nb5+  Nb106  1  0.10874600  0.85874900  0.10874400  1
  Nb5+  Nb107  1  0.10874600  0.85874900  0.60874400  1
  Nb5+  Nb108  1  0.60874600  0.35874900  0.10874400  1
  Nb5+  Nb109  1  0.60874600  0.35874900  0.60874400  1
  Nb5+  Nb110  1  0.60874600  0.85874900  0.10874400  1
  Nb5+  Nb111  1  0.60874600  0.85874900  0.60874400  1
  Nb5+  Nb112  1  0.35874600  0.10874900  0.10874400  1
  Nb5+  Nb113  1  0.35874600  0.10874900  0.60874400  1
  Nb5+  Nb114  1  0.35874600  0.60874900  0.10874400  1
  Nb5+  Nb115  1  0.35874600  0.60874900  0.60874400  1
  Nb5+  Nb116  1  0.85874600  0.10874900  0.10874400  1
  Nb5+  Nb117  1  0.85874600  0.10874900  0.60874400  1
  Nb5+  Nb118  1  0.85874600  0.60874900  0.10874400  1
  Nb5+  Nb119  1  0.85874600  0.60874900  0.60874400  1
  Nb5+  Nb120  1  0.10874600  0.10874900  0.35874400  1
  Nb5+  Nb121  1  0.10874600  0.10874900  0.85874400  1
  Nb5+  Nb122  1  0.10874600  0.60874900  0.35874400  1
  Nb5+  Nb123  1  0.10874600  0.60874800  0.85874400  1
  Nb5+  Nb124  1  0.60874600  0.10874900  0.35874400  1
  Nb5+  Nb125  1  0.60874600  0.10874900  0.85874400  1
  Nb5+  Nb126  1  0.60874600  0.60874900  0.35874400  1
  Nb5+  Nb127  1  0.60874600  0.60874900  0.85874400  1
  O2-  O128  1  0.31449700  0.22649100  0.37957100  1
  O2-  O129  1  0.31449700  0.22649100  0.87957100  1
  O2-  O130  1  0.31449700  0.72649100  0.37957100  1
  O2-  O131  1  0.31449700  0.72649100  0.87957100  1
  O2-  O132  1  0.81449700  0.22649100  0.37957100  1
  O2-  O133  1  0.81449700  0.22649100  0.87957100  1
  O2-  O134  1  0.81449700  0.72649100  0.37957100  1
  O2-  O135  1  0.81449700  0.72649100  0.87957100  1
  O2-  O136  1  0.06449700  0.22649100  0.12957100  1
  O2-  O137  1  0.06449700  0.22649100  0.62957100  1
  O2-  O138  1  0.06449700  0.72649100  0.12957100  1
  O2-  O139  1  0.06449700  0.72649100  0.62957100  1
  O2-  O140  1  0.56449700  0.22649100  0.12957100  1
  O2-  O141  1  0.56449700  0.22649100  0.62957100  1
  O2-  O142  1  0.56449700  0.72649100  0.12957100  1
  O2-  O143  1  0.56449700  0.72649100  0.62957100  1
  O2-  O144  1  0.31449700  0.47649100  0.12957100  1
  O2-  O145  1  0.31449700  0.47649100  0.62957100  1
  O2-  O146  1  0.31449700  0.97649100  0.12957100  1
  O2-  O147  1  0.31449700  0.97649100  0.62957100  1
  O2-  O148  1  0.81449700  0.47649100  0.12957100  1
  O2-  O149  1  0.81449700  0.47649100  0.62957100  1
  O2-  O150  1  0.81449700  0.97649100  0.12957100  1
  O2-  O151  1  0.81449700  0.97649100  0.62957100  1
  O2-  O152  1  0.06449700  0.47649100  0.37957100  1
  O2-  O153  1  0.06449700  0.47649100  0.87957100  1
  O2-  O154  1  0.06449700  0.97649100  0.37957100  1
  O2-  O155  1  0.06449700  0.97649100  0.87957100  1
  O2-  O156  1  0.56449700  0.47649100  0.37957100  1
  O2-  O157  1  0.56449700  0.47649100  0.87957100  1
  O2-  O158  1  0.56449700  0.97649100  0.37957100  1
  O2-  O159  1  0.56449700  0.97649100  0.87957100  1
  O2-  O160  1  0.37957200  0.31449500  0.22649400  1
  O2-  O161  1  0.37957200  0.31449500  0.72649400  1
  O2-  O162  1  0.37957200  0.81449500  0.22649400  1
  O2-  O163  1  0.37957200  0.81449500  0.72649400  1
  O2-  O164  1  0.87957200  0.31449500  0.22649400  1
  O2-  O165  1  0.87957200  0.31449500  0.72649400  1
  O2-  O166  1  0.87957200  0.81449500  0.22649400  1
  O2-  O167  1  0.87957200  0.81449500  0.72649400  1
  O2-  O168  1  0.12957100  0.31449500  0.47649400  1
  O2-  O169  1  0.12957200  0.31449500  0.97649400  1
  O2-  O170  1  0.12957200  0.81449500  0.47649400  1
  O2-  O171  1  0.12957200  0.81449500  0.97649400  1
  O2-  O172  1  0.62957200  0.31449500  0.47649300  1
  O2-  O173  1  0.62957200  0.31449500  0.97649400  1
  O2-  O174  1  0.62957200  0.81449500  0.47649400  1
  O2-  O175  1  0.62957200  0.81449500  0.97649300  1
  O2-  O176  1  0.37957200  0.06449500  0.47649400  1
  O2-  O177  1  0.37957200  0.06449500  0.97649400  1
  O2-  O178  1  0.37957200  0.56449500  0.47649400  1
  O2-  O179  1  0.37957200  0.56449500  0.97649400  1
  O2-  O180  1  0.87957200  0.06449500  0.47649400  1
  O2-  O181  1  0.87957200  0.06449500  0.97649400  1
  O2-  O182  1  0.87957100  0.56449500  0.47649400  1
  O2-  O183  1  0.87957200  0.56449500  0.97649400  1
  O2-  O184  1  0.12957200  0.06449500  0.22649400  1
  O2-  O185  1  0.12957200  0.06449500  0.72649300  1
  O2-  O186  1  0.12957200  0.56449500  0.22649400  1
  O2-  O187  1  0.12957200  0.56449500  0.72649400  1
  O2-  O188  1  0.62957200  0.06449500  0.22649300  1
  O2-  O189  1  0.62957200  0.06449500  0.72649400  1
  O2-  O190  1  0.62957100  0.56449500  0.22649400  1
  O2-  O191  1  0.62957200  0.56449500  0.72649400  1
  O2-  O192  1  0.22649400  0.37957100  0.31449600  1
  O2-  O193  1  0.22649400  0.37957100  0.81449600  1
  O2-  O194  1  0.22649400  0.87957100  0.31449600  1
  O2-  O195  1  0.22649400  0.87957100  0.81449600  1
  O2-  O196  1  0.72649400  0.37957100  0.31449600  1
  O2-  O197  1  0.72649400  0.37957100  0.81449600  1
  O2-  O198  1  0.72649400  0.87957100  0.31449600  1
  O2-  O199  1  0.72649400  0.87957100  0.81449600  1
  O2-  O200  1  0.47649400  0.37957100  0.06449600  1
  O2-  O201  1  0.47649400  0.37957100  0.56449600  1
  O2-  O202  1  0.47649400  0.87957100  0.06449600  1
  O2-  O203  1  0.47649400  0.87957100  0.56449600  1
  O2-  O204  1  0.97649400  0.37957100  0.06449600  1
  O2-  O205  1  0.97649400  0.37957100  0.56449700  1
  O2-  O206  1  0.97649400  0.87957100  0.06449600  1
  O2-  O207  1  0.97649400  0.87957100  0.56449600  1
  O2-  O208  1  0.22649400  0.12957100  0.06449600  1
  O2-  O209  1  0.22649400  0.12957100  0.56449600  1
  O2-  O210  1  0.22649400  0.62957100  0.06449600  1
  O2-  O211  1  0.22649400  0.62957100  0.56449600  1
  O2-  O212  1  0.72649300  0.12957100  0.06449600  1
  O2-  O213  1  0.72649400  0.12957100  0.56449600  1
  O2-  O214  1  0.72649400  0.62957100  0.06449600  1
  O2-  O215  1  0.72649400  0.62957100  0.56449600  1
  O2-  O216  1  0.47649400  0.12957100  0.31449600  1
  O2-  O217  1  0.47649400  0.12957100  0.81449600  1
  O2-  O218  1  0.47649400  0.62957100  0.31449600  1
  O2-  O219  1  0.47649400  0.62957100  0.81449600  1
  O2-  O220  1  0.97649400  0.12957100  0.31449600  1
  O2-  O221  1  0.97649400  0.12957100  0.81449600  1
  O2-  O222  1  0.97649400  0.62957100  0.31449600  1
  O2-  O223  1  0.97649400  0.62957100  0.81449600  1
  O2-  O224  1  0.31449600  0.12957100  0.22649300  1
  O2-  O225  1  0.31449600  0.12957100  0.72649300  1
  O2-  O226  1  0.31449600  0.62957100  0.22649300  1
  O2-  O227  1  0.31449600  0.62957100  0.72649300  1
  O2-  O228  1  0.81449600  0.12957100  0.22649300  1
  O2-  O229  1  0.81449600  0.12957100  0.72649400  1
  O2-  O230  1  0.81449600  0.62957100  0.22649300  1
  O2-  O231  1  0.81449600  0.62957100  0.72649300  1
  O2-  O232  1  0.06449600  0.12957100  0.47649300  1
  O2-  O233  1  0.06449600  0.12957100  0.97649300  1
  O2-  O234  1  0.06449600  0.62957100  0.47649300  1
  O2-  O235  1  0.06449500  0.62957100  0.97649400  1
  O2-  O236  1  0.56449500  0.12957100  0.47649300  1
  O2-  O237  1  0.56449600  0.12957100  0.97649300  1
  O2-  O238  1  0.56449600  0.62957100  0.47649300  1
  O2-  O239  1  0.56449600  0.62957100  0.97649300  1
  O2-  O240  1  0.31449600  0.37957100  0.47649300  1
  O2-  O241  1  0.31449600  0.37957100  0.97649400  1
  O2-  O242  1  0.31449600  0.87957100  0.47649300  1
  O2-  O243  1  0.31449500  0.87957100  0.97649300  1
  O2-  O244  1  0.81449600  0.37957100  0.47649300  1
  O2-  O245  1  0.81449600  0.37957100  0.97649300  1
  O2-  O246  1  0.81449500  0.87957100  0.47649300  1
  O2-  O247  1  0.81449600  0.87957100  0.97649300  1
  O2-  O248  1  0.06449600  0.37957100  0.22649300  1
  O2-  O249  1  0.06449600  0.37957100  0.72649400  1
  O2-  O250  1  0.06449600  0.87957100  0.22649300  1
  O2-  O251  1  0.06449500  0.87957100  0.72649300  1
  O2-  O252  1  0.56449600  0.37957100  0.22649300  1
  O2-  O253  1  0.56449600  0.37957100  0.72649400  1
  O2-  O254  1  0.56449500  0.87957100  0.22649300  1
  O2-  O255  1  0.56449600  0.87957100  0.72649300  1
  O2-  O256  1  0.22649300  0.31449500  0.12957200  1
  O2-  O257  1  0.22649300  0.31449500  0.62957200  1
  O2-  O258  1  0.22649300  0.81449500  0.12957200  1
  O2-  O259  1  0.22649300  0.81449500  0.62957200  1
  O2-  O260  1  0.72649400  0.31449500  0.12957200  1
  O2-  O261  1  0.72649300  0.31449500  0.62957200  1
  O2-  O262  1  0.72649300  0.81449500  0.12957200  1
  O2-  O263  1  0.72649300  0.81449600  0.62957200  1
  O2-  O264  1  0.47649300  0.31449500  0.37957200  1
  O2-  O265  1  0.47649300  0.31449500  0.87957200  1
  O2-  O266  1  0.47649300  0.81449500  0.37957200  1
  O2-  O267  1  0.47649300  0.81449500  0.87957200  1
  O2-  O268  1  0.97649300  0.31449500  0.37957200  1
  O2-  O269  1  0.97649300  0.31449500  0.87957200  1
  O2-  O270  1  0.97649300  0.81449500  0.37957200  1
  O2-  O271  1  0.97649300  0.81449500  0.87957200  1
  O2-  O272  1  0.22649300  0.06449500  0.37957200  1
  O2-  O273  1  0.22649300  0.06449500  0.87957200  1
  O2-  O274  1  0.22649300  0.56449500  0.37957200  1
  O2-  O275  1  0.22649400  0.56449500  0.87957200  1
  O2-  O276  1  0.72649300  0.06449500  0.37957200  1
  O2-  O277  1  0.72649300  0.06449500  0.87957200  1
  O2-  O278  1  0.72649300  0.56449500  0.37957200  1
  O2-  O279  1  0.72649300  0.56449500  0.87957200  1
  O2-  O280  1  0.47649300  0.06449500  0.12957200  1
  O2-  O281  1  0.47649300  0.06449500  0.62957200  1
  O2-  O282  1  0.47649300  0.56449500  0.12957200  1
  O2-  O283  1  0.47649300  0.56449500  0.62957200  1
  O2-  O284  1  0.97649300  0.06449500  0.12957200  1
  O2-  O285  1  0.97649300  0.06449500  0.62957200  1
  O2-  O286  1  0.97649300  0.56449500  0.12957200  1
  O2-  O287  1  0.97649300  0.56449500  0.62957200  1
  O2-  O288  1  0.12957100  0.22649000  0.31449600  1
  O2-  O289  1  0.12957200  0.22649000  0.81449600  1
  O2-  O290  1  0.12957100  0.72649000  0.31449600  1
  O2-  O291  1  0.12957200  0.72649000  0.81449600  1
  O2-  O292  1  0.62957100  0.22649000  0.31449600  1
  O2-  O293  1  0.62957200  0.22649000  0.81449600  1
  O2-  O294  1  0.62957200  0.72649000  0.31449600  1
  O2-  O295  1  0.62957100  0.72649000  0.81449600  1
  O2-  O296  1  0.37957200  0.22649000  0.06449600  1
  O2-  O297  1  0.37957100  0.22649000  0.56449600  1
  O2-  O298  1  0.37957100  0.72649000  0.06449600  1
  O2-  O299  1  0.37957100  0.72649000  0.56449600  1
  O2-  O300  1  0.87957100  0.22649000  0.06449600  1
  O2-  O301  1  0.87957100  0.22649000  0.56449600  1
  O2-  O302  1  0.87957100  0.72649000  0.06449600  1
  O2-  O303  1  0.87957100  0.72649000  0.56449600  1
  O2-  O304  1  0.12957200  0.47649000  0.06449600  1
  O2-  O305  1  0.12957200  0.47649000  0.56449600  1
  O2-  O306  1  0.12957200  0.97649000  0.06449600  1
  O2-  O307  1  0.12957100  0.97649000  0.56449600  1
  O2-  O308  1  0.62957100  0.47649000  0.06449600  1
  O2-  O309  1  0.62957200  0.47649000  0.56449600  1
  O2-  O310  1  0.62957200  0.97649000  0.06449600  1
  O2-  O311  1  0.62957100  0.97649000  0.56449600  1
  O2-  O312  1  0.37957100  0.47649000  0.31449600  1
  O2-  O313  1  0.37957200  0.47649000  0.81449600  1
  O2-  O314  1  0.37957100  0.97649000  0.31449600  1
  O2-  O315  1  0.37957100  0.97649000  0.81449600  1
  O2-  O316  1  0.87957100  0.47649000  0.31449600  1
  O2-  O317  1  0.87957100  0.47649000  0.81449600  1
  O2-  O318  1  0.87957200  0.97649000  0.31449600  1
  O2-  O319  1  0.87957100  0.97649000  0.81449600  1
