# generated using pymatgen
data_Li91Nb33O128
_symmetry_space_group_name_H-M   'P 1'
_cell_length_a   14.61654532
_cell_length_b   14.61654535
_cell_length_c   14.61654600
_cell_angle_alpha   109.47124759
_cell_angle_beta   109.47122158
_cell_angle_gamma   109.47123939
_symmetry_Int_Tables_number   1
_chemical_formula_structural   Li91Nb33O128
_chemical_formula_sum   'Li91 Nb33 O128'
_cell_volume   2403.87617168
_cell_formula_units_Z   1
loop_
 _symmetry_equiv_pos_site_id
 _symmetry_equiv_pos_as_xyz
  1  'x, y, z'
loop_
 _atom_type_symbol
 _atom_type_oxidation_number
  Li+  1.0
  Nb5+  5.0
  O2-  -2.0
loop_
 _atom_site_type_symbol
 _atom_site_label
 _atom_site_symmetry_multiplicity
 _atom_site_fract_x
 _atom_site_fract_y
 _atom_site_fract_z
 _atom_site_occupancy
  Li+  Li0  1  1.00000000  0.13655700  0.25727600  1
  Li+  Li1  1  1.00000000  0.13655700  0.75727600  1
  Li+  Li2  1  1.00000000  0.63655700  0.25727600  1
  Li+  Li3  1  1.00000000  0.63655700  0.75727600  1
  Li+  Li4  1  0.50000000  0.13655700  0.25727600  1
  Li+  Li5  1  0.50000000  0.13655700  0.75727600  1
  Li+  Li6  1  0.50000000  0.63655700  0.75727600  1
  Li+  Li7  1  0.36344300  0.36344300  0.12071900  1
  Li+  Li8  1  0.36344300  0.36344300  0.62071900  1
  Li+  Li9  1  0.36344300  0.86344300  0.12071900  1
  Li+  Li10  1  0.36344300  0.86344300  0.62071900  1
  Li+  Li11  1  0.86344300  0.36344300  0.12071900  1
  Li+  Li12  1  0.86344300  0.36344300  0.62071900  1
  Li+  Li13  1  0.86344300  0.86344300  0.12071900  1
  Li+  Li14  1  0.86344300  0.86344300  0.62071900  1
  Li+  Li15  1  0.13655700  0.00000000  0.25727600  1
  Li+  Li16  1  0.13655700  1.00000000  0.75727600  1
  Li+  Li17  1  0.13655700  0.50000000  0.25727600  1
  Li+  Li18  1  0.13655700  0.50000000  0.75727600  1
  Li+  Li19  1  0.63655700  1.00000000  0.25727600  1
  Li+  Li20  1  0.63655700  1.00000000  0.75727600  1
  Li+  Li21  1  0.63655700  0.50000000  0.25727600  1
  Li+  Li22  1  0.63655700  0.50000000  0.75727600  1
  Li+  Li23  1  1.00000000  0.25727600  0.13655700  1
  Li+  Li24  1  1.00000000  0.25727600  0.63655700  1
  Li+  Li25  1  1.00000000  0.75727600  0.13655700  1
  Li+  Li26  1  1.00000000  0.75727600  0.63655700  1
  Li+  Li27  1  0.50000000  0.25727600  0.13655700  1
  Li+  Li28  1  0.50000000  0.25727600  0.63655700  1
  Li+  Li29  1  0.50000000  0.75727600  0.13655700  0.42857
  Li+  Li30  1  0.50000000  0.75727600  0.63655700  1
  Li+  Li31  1  0.13655700  0.25727600  1.00000000  1
  Li+  Li32  1  0.13655700  0.25727600  0.50000000  1
  Li+  Li33  1  0.13655700  0.75727600  1.00000000  1
  Li+  Li34  1  0.13655700  0.75727600  0.50000000  1
  Li+  Li35  1  0.63655700  0.25727600  1.00000000  1
  Li+  Li36  1  0.63655700  0.25727600  0.50000000  1
  Li+  Li37  1  0.63655700  0.75727600  1.00000000  1
  Li+  Li38  1  0.63655700  0.75727600  0.50000000  0.42857
  Li+  Li39  1  0.36344300  0.12071900  0.36344300  1
  Li+  Li40  1  0.36344300  0.12072000  0.86344300  1
  Li+  Li41  1  0.36344300  0.62071900  0.36344300  0.42857
  Li+  Li42  1  0.36344300  0.62071900  0.86344300  1
  Li+  Li43  1  0.86344300  0.12072000  0.36344300  1
  Li+  Li44  1  0.86344300  0.12071900  0.86344300  1
  Li+  Li45  1  0.86344300  0.62071900  0.36344300  1
  Li+  Li46  1  0.86344300  0.62071900  0.86344300  1
  Li+  Li47  1  0.12071900  0.36344300  0.36344300  1
  Li+  Li48  1  0.12072000  0.36344300  0.86344300  1
  Li+  Li49  1  0.12071900  0.86344300  0.36344300  1
  Li+  Li50  1  0.12072000  0.86344300  0.86344300  1
  Li+  Li51  1  0.62071900  0.36344300  0.36344300  1
  Li+  Li52  1  0.62071900  0.36344300  0.86344300  1
  Li+  Li53  1  0.62071900  0.86344300  0.36344300  0.42857
  Li+  Li54  1  0.62071900  0.86344300  0.86344300  1
  Li+  Li55  1  0.25727600  0.13655700  1.00000000  1
  Li+  Li56  1  0.25727600  0.13655700  0.50000000  1
  Li+  Li57  1  0.25727600  0.63655700  1.00000000  1
  Li+  Li58  1  0.25727600  0.63655700  0.50000000  1
  Li+  Li59  1  0.75727600  0.13655700  1.00000000  1
  Li+  Li60  1  0.75727600  0.13655700  0.50000000  1
  Li+  Li61  1  0.75727600  0.63655700  1.00000000  1
  Li+  Li62  1  0.75727600  0.63655700  0.50000000  1
  Li+  Li63  1  0.25727600  1.00000000  0.13655700  1
  Li+  Li64  1  0.25727600  1.00000000  0.63655700  1
  Li+  Li65  1  0.25727600  0.50000000  0.13655700  0.42857
  Li+  Li66  1  0.25727600  0.50000000  0.63655700  1
  Li+  Li67  1  0.75727600  1.00000000  0.13655700  1
  Li+  Li68  1  0.75727600  1.00000000  0.63655700  1
  Li+  Li69  1  0.75727600  0.50000000  0.13655700  1
  Li+  Li70  1  0.75727600  0.50000000  0.63655700  1
  Li+  Li71  1  0.37928100  0.24272400  0.24272400  1
  Li+  Li72  1  0.37928100  0.24272400  0.74272400  1
  Li+  Li73  1  0.37928100  0.74272400  0.24272400  0.42857
  Li+  Li74  1  0.37928100  0.74272400  0.74272400  1
  Li+  Li75  1  0.87928100  0.24272400  0.24272400  1
  Li+  Li76  1  0.87928100  0.24272400  0.74272400  1
  Li+  Li77  1  0.87928100  0.74272400  0.24272400  1
  Li+  Li78  1  0.87928100  0.74272400  0.74272400  1
  Li+  Li79  1  0.24272400  0.24272400  0.37928000  1
  Li+  Li80  1  0.24272400  0.24272400  0.87928100  1
  Li+  Li81  1  0.24272400  0.74272400  0.37928100  1
  Li+  Li82  1  0.24272400  0.74272400  0.87928100  1
  Li+  Li83  1  0.74272400  0.24272400  0.37928100  1
  Li+  Li84  1  0.74272400  0.24272400  0.87928100  1
  Li+  Li85  1  0.74272400  0.74272400  0.37928000  0.42857
  Li+  Li86  1  0.74272400  0.74272400  0.87928000  1
  Li+  Li87  1  0.24272400  0.37928100  0.24272400  1
  Li+  Li88  1  0.24272400  0.37928100  0.74272400  1
  Li+  Li89  1  0.24272400  0.87928100  0.24272400  1
  Li+  Li90  1  0.24272400  0.87928100  0.74272400  1
  Li+  Li91  1  0.74272400  0.37928100  0.24272400  1
  Li+  Li92  1  0.74272400  0.37928100  0.74272400  1
  Li+  Li93  1  0.74272400  0.87928100  0.24272400  1
  Li+  Li94  1  0.74272400  0.87928100  0.74272400  1
  Nb5+  Nb95  1  0.50000000  0.63655700  0.25727600  1
  Nb5+  Nb96  1  0.00000100  0.00000000  0.35897100  1
  Nb5+  Nb97  1  0.00000000  1.00000000  0.85897100  1
  Nb5+  Nb98  1  1.00000000  0.50000000  0.35897100  1
  Nb5+  Nb99  1  1.00000000  0.50000000  0.85897100  1
  Nb5+  Nb100  1  0.50000000  1.00000000  0.35897100  1
  Nb5+  Nb101  1  0.50000000  1.00000000  0.85897200  1
  Nb5+  Nb102  1  0.50000000  0.50000000  0.35897100  1
  Nb5+  Nb103  1  0.50000000  0.50000000  0.85897100  1
  Nb5+  Nb104  1  0.99999900  0.35897100  1.00000000  1
  Nb5+  Nb105  1  1.00000000  0.35897100  0.50000000  1
  Nb5+  Nb106  1  0.99999900  0.85897100  1.00000000  1
  Nb5+  Nb107  1  1.00000000  0.85897100  0.50000000  1
  Nb5+  Nb108  1  0.50000000  0.35897200  1.00000000  1
  Nb5+  Nb109  1  0.50000000  0.35897100  0.50000000  1
  Nb5+  Nb110  1  0.50000000  0.85897200  1.00000000  1
  Nb5+  Nb111  1  0.49999900  0.85897100  0.50000000  1
  Nb5+  Nb112  1  0.35897200  1.00000000  0.00000000  1
  Nb5+  Nb113  1  0.35897100  1.00000000  0.50000000  1
  Nb5+  Nb114  1  0.35897100  0.50000000  0.00000000  1
  Nb5+  Nb115  1  0.35897200  0.50000100  0.50000000  1
  Nb5+  Nb116  1  0.85897100  1.00000000  1.00000000  1
  Nb5+  Nb117  1  0.85897100  1.00000000  0.50000000  1
  Nb5+  Nb118  1  0.85897100  0.49999900  0.99999900  1
  Nb5+  Nb119  1  0.85897200  0.50000000  0.50000000  1
  Nb5+  Nb120  1  0.14102800  0.14102800  0.14102800  1
  Nb5+  Nb121  1  0.14102900  0.14102900  0.64102900  1
  Nb5+  Nb122  1  0.14102900  0.64102900  0.14102900  1
  Nb5+  Nb123  1  0.14102900  0.64102900  0.64102900  1
  Nb5+  Nb124  1  0.64102900  0.14102900  0.14102900  1
  Nb5+  Nb125  1  0.64102900  0.14102900  0.64102900  1
  Nb5+  Nb126  1  0.64102800  0.64102900  0.14102900  1
  Nb5+  Nb127  1  0.64102900  0.64102900  0.64102900  1
  O2-  O128  1  0.00000000  0.37929500  0.25608100  1
  O2-  O129  1  1.00000000  0.37929500  0.75608100  1
  O2-  O130  1  1.00000000  0.87929600  0.25608100  1
  O2-  O131  1  1.00000000  0.87929600  0.75608100  1
  O2-  O132  1  0.50000000  0.37929500  0.25608100  1
  O2-  O133  1  0.50000000  0.37929500  0.75608100  1
  O2-  O134  1  0.50000000  0.87929500  0.25608100  1
  O2-  O135  1  0.50000000  0.87929500  0.75608100  1
  O2-  O136  1  0.12070400  0.12070400  0.37678600  1
  O2-  O137  1  0.12070400  0.12070400  0.87678600  1
  O2-  O138  1  0.12070500  0.62070500  0.37678600  1
  O2-  O139  1  0.12070500  0.62070500  0.87678600  1
  O2-  O140  1  0.62070500  0.12070500  0.37678600  1
  O2-  O141  1  0.62070500  0.12070500  0.87678600  1
  O2-  O142  1  0.62070500  0.62070500  0.37678600  1
  O2-  O143  1  0.62070500  0.62070500  0.87678600  1
  O2-  O144  1  0.37929500  1.00000000  0.25608100  1
  O2-  O145  1  0.37929500  1.00000000  0.75608100  1
  O2-  O146  1  0.37929500  0.50000000  0.25608100  1
  O2-  O147  1  0.37929500  0.50000000  0.75608100  1
  O2-  O148  1  0.87929600  1.00000000  0.25608100  1
  O2-  O149  1  0.87929600  1.00000000  0.75608100  1
  O2-  O150  1  0.87929500  0.50000000  0.25608100  1
  O2-  O151  1  0.87929500  0.50000000  0.75608100  1
  O2-  O152  1  1.00000000  0.25608100  0.37929600  1
  O2-  O153  1  1.00000000  0.25608100  0.87929500  1
  O2-  O154  1  1.00000000  0.75608100  0.37929600  1
  O2-  O155  1  1.00000000  0.75608100  0.87929600  1
  O2-  O156  1  0.50000000  0.25608100  0.37929600  1
  O2-  O157  1  0.50000000  0.25608100  0.87929500  1
  O2-  O158  1  0.50000000  0.75608100  0.37929500  1
  O2-  O159  1  0.50000000  0.75608100  0.87929500  1
  O2-  O160  1  0.37929500  0.25608100  0.00000000  1
  O2-  O161  1  0.37929600  0.25608100  0.50000000  1
  O2-  O162  1  0.37929500  0.75608100  0.00000000  1
  O2-  O163  1  0.37929500  0.75608100  0.50000000  1
  O2-  O164  1  0.87929600  0.25608100  0.00000000  1
  O2-  O165  1  0.87929500  0.25608100  0.50000000  1
  O2-  O166  1  0.87929600  0.75608100  1.00000000  1
  O2-  O167  1  0.87929600  0.75608100  0.50000000  1
  O2-  O168  1  0.12070500  0.37678600  0.12070500  1
  O2-  O169  1  0.12070500  0.37678600  0.62070500  1
  O2-  O170  1  0.12070400  0.87678600  0.12070500  1
  O2-  O171  1  0.12070400  0.87678600  0.62070400  1
  O2-  O172  1  0.62070500  0.37678600  0.12070500  1
  O2-  O173  1  0.62070500  0.37678600  0.62070500  1
  O2-  O174  1  0.62070500  0.87678600  0.12070500  1
  O2-  O175  1  0.62070500  0.87678600  0.62070500  1
  O2-  O176  1  0.37678500  0.12070500  0.12070500  1
  O2-  O177  1  0.37678500  0.12070500  0.62070500  1
  O2-  O178  1  0.37678600  0.62070500  0.12070500  1
  O2-  O179  1  0.37678600  0.62070500  0.62070500  1
  O2-  O180  1  0.87678600  0.12070400  0.12070400  1
  O2-  O181  1  0.87678500  0.12070400  0.62070400  1
  O2-  O182  1  0.87678600  0.62070500  0.12070500  1
  O2-  O183  1  0.87678600  0.62070500  0.62070500  1
  O2-  O184  1  0.25608100  0.37929500  0.00000000  1
  O2-  O185  1  0.25608100  0.37929600  0.50000000  1
  O2-  O186  1  0.25608100  0.87929500  1.00000000  1
  O2-  O187  1  0.25608100  0.87929500  0.50000000  1
  O2-  O188  1  0.75608100  0.37929500  1.00000000  1
  O2-  O189  1  0.75608100  0.37929500  0.50000000  1
  O2-  O190  1  0.75608100  0.87929500  1.00000000  1
  O2-  O191  1  0.75608100  0.87929600  0.50000000  1
  O2-  O192  1  0.25608100  1.00000000  0.37929500  1
  O2-  O193  1  0.25608100  1.00000000  0.87929500  1
  O2-  O194  1  0.25608100  0.50000000  0.37929500  1
  O2-  O195  1  0.25608100  0.50000000  0.87929500  1
  O2-  O196  1  0.75608100  1.00000000  0.37929600  1
  O2-  O197  1  0.75608100  1.00000000  0.87929500  1
  O2-  O198  1  0.75608100  0.50000000  0.37929500  1
  O2-  O199  1  0.75608100  0.50000000  0.87929500  1
  O2-  O200  1  0.12321500  0.24391900  0.24391900  1
  O2-  O201  1  0.12321500  0.24391900  0.74391900  1
  O2-  O202  1  0.12321500  0.74391900  0.24391900  1
  O2-  O203  1  0.12321500  0.74391900  0.74391900  1
  O2-  O204  1  0.62321500  0.24391900  0.24392000  1
  O2-  O205  1  0.62321500  0.24391900  0.74391900  1
  O2-  O206  1  0.62321500  0.74391900  0.24391900  1
  O2-  O207  1  0.62321500  0.74391900  0.74391900  1
  O2-  O208  1  0.24391900  0.24391900  0.12321500  1
  O2-  O209  1  0.24391900  0.24391900  0.62321500  1
  O2-  O210  1  0.24391900  0.74391900  0.12321500  1
  O2-  O211  1  0.24391900  0.74391900  0.62321500  1
  O2-  O212  1  0.74391900  0.24391900  0.12321500  1
  O2-  O213  1  0.74391900  0.24391900  0.62321500  1
  O2-  O214  1  0.74391900  0.74391900  0.12321500  1
  O2-  O215  1  0.74391900  0.74391900  0.62321500  1
  O2-  O216  1  0.24391900  0.12321500  0.24391900  1
  O2-  O217  1  0.24391900  0.12321500  0.74391900  1
  O2-  O218  1  0.24391900  0.62321500  0.24392000  1
  O2-  O219  1  0.24391900  0.62321500  0.74391900  1
  O2-  O220  1  0.74391900  0.12321500  0.24392000  1
  O2-  O221  1  0.74391900  0.12321500  0.74391900  1
  O2-  O222  1  0.74391900  0.62321500  0.24391900  1
  O2-  O223  1  0.74391900  0.62321500  0.74391900  1
  O2-  O224  1  0.00000000  0.00000000  0.11415300  1
  O2-  O225  1  0.00000000  0.00000000  0.61415300  1
  O2-  O226  1  0.00000000  0.50000000  0.11415300  1
  O2-  O227  1  0.00000000  0.50000000  0.61415300  1
  O2-  O228  1  0.50000000  0.00000000  0.11415300  1
  O2-  O229  1  0.50000000  0.00000000  0.61415300  1
  O2-  O230  1  0.50000000  0.50000000  0.11415300  1
  O2-  O231  1  0.50000000  0.50000000  0.61415300  1
  O2-  O232  1  0.00000000  0.11415300  0.00000000  1
  O2-  O233  1  0.00000000  0.11415300  0.50000000  1
  O2-  O234  1  0.00000000  0.61415300  1.00000000  1
  O2-  O235  1  0.00000000  0.61415300  0.50000000  1
  O2-  O236  1  0.50000000  0.11415300  0.00000000  1
  O2-  O237  1  0.50000000  0.11415300  0.50000000  1
  O2-  O238  1  0.50000000  0.61415300  0.00000000  1
  O2-  O239  1  0.50000000  0.61415300  0.50000000  1
  O2-  O240  1  0.11415300  0.00000000  0.00000000  1
  O2-  O241  1  0.11415300  0.00000000  0.50000000  1
  O2-  O242  1  0.11415300  0.50000000  0.00000000  1
  O2-  O243  1  0.11415300  0.50000000  0.50000000  1
  O2-  O244  1  0.61415300  0.00000000  0.00000000  1
  O2-  O245  1  0.61415300  0.00000000  0.50000000  1
  O2-  O246  1  0.61415300  0.50000000  0.00000000  1
  O2-  O247  1  0.61415300  0.50000000  0.50000000  1
  O2-  O248  1  0.38584700  0.38584700  0.38584700  1
  O2-  O249  1  0.38584700  0.38584700  0.88584700  1
  O2-  O250  1  0.38584700  0.88584700  0.38584700  1
  O2-  O251  1  0.38584700  0.88584700  0.88584700  1
  O2-  O252  1  0.88584700  0.38584700  0.38584700  1
  O2-  O253  1  0.88584700  0.38584700  0.88584700  1
  O2-  O254  1  0.88584700  0.88584700  0.38584700  1
  O2-  O255  1  0.88584700  0.88584700  0.88584700  1
