# generated using pymatgen
data_Li59Ta65O192
_symmetry_space_group_name_H-M   'P 1'
_cell_length_a   15.03373433
_cell_length_b   15.03377483
_cell_length_c   15.03371245
_cell_angle_alpha   86.35968219
_cell_angle_beta   86.35973402
_cell_angle_gamma   86.35950225
_symmetry_Int_Tables_number   1
_chemical_formula_structural   Li59Ta65O192
_chemical_formula_sum   'Li59 Ta65 O192'
_cell_volume   3378.09141820
_cell_formula_units_Z   1
loop_
 _symmetry_equiv_pos_site_id
 _symmetry_equiv_pos_as_xyz
  1  'x, y, z'
loop_
 _atom_type_symbol
 _atom_type_oxidation_number
  Li+  1.0
  Ta5+  5.0
  O2-  -2.0
loop_
 _atom_site_type_symbol
 _atom_site_label
 _atom_site_symmetry_multiplicity
 _atom_site_fract_x
 _atom_site_fract_y
 _atom_site_fract_z
 _atom_site_occupancy
  Li+  Li0  1  0.38979100  0.38979100  0.88979200  1
  Li+  Li1  1  0.38979100  0.88979100  0.38979200  1
  Li+  Li2  1  0.38979100  0.88979100  0.88979200  1
  Li+  Li3  1  0.88979100  0.38979100  0.38979200  1
  Li+  Li4  1  0.88979100  0.38979100  0.88979200  1
  Li+  Li5  1  0.88979100  0.88979100  0.38979200  1
  Li+  Li6  1  0.88979100  0.88979100  0.88979200  1
  Li+  Li7  1  0.13979100  0.38979100  0.13979200  0.9167
  Li+  Li8  1  0.13979100  0.38979100  0.63979200  0.9167
  Li+  Li9  1  0.13979100  0.88979100  0.13979200  1
  Li+  Li10  1  0.13979100  0.88979100  0.63979200  1
  Li+  Li11  1  0.63979100  0.38979100  0.13979200  0.9167
  Li+  Li12  1  0.63979100  0.38979100  0.63979200  0.9167
  Li+  Li13  1  0.63979100  0.88979100  0.13979200  1
  Li+  Li14  1  0.63979100  0.88979100  0.63979200  1
  Li+  Li15  1  0.38979100  0.13979100  0.13979200  0.9167
  Li+  Li16  1  0.38979100  0.13979100  0.63979200  0.9167
  Li+  Li17  1  0.38979100  0.63979100  0.13979200  0.9167
  Li+  Li18  1  0.38979100  0.63979100  0.63979200  0.9167
  Li+  Li19  1  0.88979100  0.13979100  0.13979200  1
  Li+  Li20  1  0.88979100  0.13979100  0.63979200  1
  Li+  Li21  1  0.88979100  0.63979100  0.13979200  1
  Li+  Li22  1  0.88979100  0.63979100  0.63979200  1
  Li+  Li23  1  0.13979100  0.13979100  0.38979200  0.9167
  Li+  Li24  1  0.13979100  0.13979100  0.88979200  1
  Li+  Li25  1  0.13979100  0.63979100  0.38979200  0.9167
  Li+  Li26  1  0.13979100  0.63979100  0.88979200  1
  Li+  Li27  1  0.63979100  0.13979100  0.38979200  0.9167
  Li+  Li28  1  0.63979100  0.13979100  0.88979200  1
  Li+  Li29  1  0.63979100  0.63979100  0.38979200  0.9167
  Li+  Li30  1  0.63979100  0.63979100  0.88979200  1
  Li+  Li31  1  0.13979200  0.13979200  0.13979200  1
  Li+  Li32  1  0.13979200  0.13979200  0.63979200  1
  Li+  Li33  1  0.13979200  0.63979100  0.13979200  1
  Li+  Li34  1  0.13979200  0.63979100  0.63979200  1
  Li+  Li35  1  0.63979200  0.13979200  0.13979200  1
  Li+  Li36  1  0.63979200  0.13979200  0.63979200  1
  Li+  Li37  1  0.63979200  0.63979200  0.13979200  1
  Li+  Li38  1  0.63979200  0.63979100  0.63979200  1
  Li+  Li39  1  0.38979200  0.13979200  0.38979200  0.5
  Li+  Li40  1  0.38979200  0.13979200  0.88979200  1
  Li+  Li41  1  0.38979200  0.63979200  0.38979200  0.5
  Li+  Li42  1  0.38979200  0.63979200  0.88979200  1
  Li+  Li43  1  0.88979200  0.13979200  0.38979200  1
  Li+  Li44  1  0.88979200  0.13979200  0.88979200  1
  Li+  Li45  1  0.88979200  0.63979200  0.38979200  1
  Li+  Li46  1  0.88979200  0.63979200  0.88979200  1
  Li+  Li47  1  0.13979200  0.38979200  0.38979200  0.5
  Li+  Li48  1  0.13979200  0.38979200  0.88979200  1
  Li+  Li49  1  0.13979200  0.88979200  0.38979200  1
  Li+  Li50  1  0.13979200  0.88979200  0.88979200  1
  Li+  Li51  1  0.63979200  0.38979200  0.38979200  0.5
  Li+  Li52  1  0.63979200  0.38979200  0.88979200  1
  Li+  Li53  1  0.63979200  0.88979100  0.38979200  1
  Li+  Li54  1  0.63979200  0.88979200  0.88979200  1
  Li+  Li55  1  0.38979200  0.38979100  0.13979200  0.5
  Li+  Li56  1  0.38979200  0.38979200  0.63979200  0.5
  Li+  Li57  1  0.38979200  0.88979200  0.13979200  1
  Li+  Li58  1  0.38979200  0.88979200  0.63979200  1
  Li+  Li59  1  0.88979200  0.38979200  0.13979200  1
  Li+  Li60  1  0.88979200  0.38979200  0.63979200  1
  Li+  Li61  1  0.88979200  0.88979100  0.13979200  1
  Li+  Li62  1  0.88979200  0.88979100  0.63979200  1
  Ta5+  Ta63  1  0.38979100  0.38979100  0.38979200  1
  Ta5+  Ta64  1  0.24808200  0.24808200  0.24808300  1
  Ta5+  Ta65  1  0.24808200  0.24808200  0.74808300  1
  Ta5+  Ta66  1  0.24808200  0.74808200  0.24808300  1
  Ta5+  Ta67  1  0.24808200  0.74808200  0.74808300  1
  Ta5+  Ta68  1  0.74808200  0.24808200  0.24808300  1
  Ta5+  Ta69  1  0.74808200  0.24808200  0.74808300  1
  Ta5+  Ta70  1  0.74808200  0.74808200  0.24808300  1
  Ta5+  Ta71  1  0.74808200  0.74808200  0.74808300  1
  Ta5+  Ta72  1  0.49808200  0.24808200  0.49808300  1
  Ta5+  Ta73  1  0.49808200  0.24808200  0.99808300  1
  Ta5+  Ta74  1  0.49808200  0.74808200  0.49808300  1
  Ta5+  Ta75  1  0.49808200  0.74808200  0.99808300  1
  Ta5+  Ta76  1  0.99808200  0.24808200  0.49808300  1
  Ta5+  Ta77  1  0.99808200  0.24808200  0.99808300  1
  Ta5+  Ta78  1  0.99808200  0.74808200  0.49808300  1
  Ta5+  Ta79  1  0.99808200  0.74808200  0.99808300  1
  Ta5+  Ta80  1  0.24808200  0.49808200  0.49808300  1
  Ta5+  Ta81  1  0.24808200  0.49808200  0.99808300  1
  Ta5+  Ta82  1  0.24808200  0.99808200  0.49808300  1
  Ta5+  Ta83  1  0.24808200  0.99808200  0.99808300  1
  Ta5+  Ta84  1  0.74808200  0.49808200  0.49808300  1
  Ta5+  Ta85  1  0.74808200  0.49808200  0.99808300  1
  Ta5+  Ta86  1  0.74808200  0.99808200  0.49808300  1
  Ta5+  Ta87  1  0.74808200  0.99808200  0.99808300  1
  Ta5+  Ta88  1  0.49808200  0.49808200  0.24808300  1
  Ta5+  Ta89  1  0.49808200  0.49808200  0.74808300  1
  Ta5+  Ta90  1  0.49808200  0.99808200  0.24808300  1
  Ta5+  Ta91  1  0.49808200  0.99808200  0.74808300  1
  Ta5+  Ta92  1  0.99808200  0.49808200  0.24808300  1
  Ta5+  Ta93  1  0.99808200  0.49808200  0.74808300  1
  Ta5+  Ta94  1  0.99808200  0.99808200  0.24808300  1
  Ta5+  Ta95  1  0.99808200  0.99808200  0.74808300  1
  Ta5+  Ta96  1  0.49808300  0.49808200  0.49808400  1
  Ta5+  Ta97  1  0.49808300  0.49808200  0.99808400  1
  Ta5+  Ta98  1  0.49808300  0.99808200  0.49808400  1
  Ta5+  Ta99  1  0.49808300  0.99808200  0.99808400  1
  Ta5+  Ta100  1  0.99808300  0.49808200  0.49808400  1
  Ta5+  Ta101  1  0.99808300  0.49808200  0.99808400  1
  Ta5+  Ta102  1  0.99808300  0.99808200  0.49808400  1
  Ta5+  Ta103  1  0.99808300  0.99808200  0.99808400  1
  Ta5+  Ta104  1  0.24808300  0.49808200  0.24808400  1
  Ta5+  Ta105  1  0.24808300  0.49808200  0.74808400  1
  Ta5+  Ta106  1  0.24808300  0.99808200  0.24808400  1
  Ta5+  Ta107  1  0.24808300  0.99808200  0.74808400  1
  Ta5+  Ta108  1  0.74808300  0.49808200  0.24808400  1
  Ta5+  Ta109  1  0.74808300  0.49808200  0.74808400  1
  Ta5+  Ta110  1  0.74808300  0.99808200  0.24808400  1
  Ta5+  Ta111  1  0.74808300  0.99808200  0.74808400  1
  Ta5+  Ta112  1  0.49808300  0.24808200  0.24808400  1
  Ta5+  Ta113  1  0.49808300  0.24808200  0.74808400  1
  Ta5+  Ta114  1  0.49808300  0.74808200  0.24808400  1
  Ta5+  Ta115  1  0.49808300  0.74808200  0.74808400  1
  Ta5+  Ta116  1  0.99808300  0.24808200  0.24808400  1
  Ta5+  Ta117  1  0.99808300  0.24808200  0.74808400  1
  Ta5+  Ta118  1  0.99808300  0.74808200  0.24808400  1
  Ta5+  Ta119  1  0.99808300  0.74808200  0.74808400  1
  Ta5+  Ta120  1  0.24808300  0.24808200  0.49808400  1
  Ta5+  Ta121  1  0.24808300  0.24808200  0.99808400  1
  Ta5+  Ta122  1  0.24808300  0.74808200  0.49808400  1
  Ta5+  Ta123  1  0.24808300  0.74808200  0.99808400  1
  Ta5+  Ta124  1  0.74808300  0.24808200  0.49808400  1
  Ta5+  Ta125  1  0.74808300  0.24808200  0.99808400  1
  Ta5+  Ta126  1  0.74808300  0.74808200  0.49808400  1
  Ta5+  Ta127  1  0.74808300  0.74808200  0.99808400  1
  O2-  O128  1  0.20812000  0.36844000  0.27066600  1
  O2-  O129  1  0.20812100  0.36844000  0.77066600  1
  O2-  O130  1  0.20812100  0.86844000  0.27066600  1
  O2-  O131  1  0.20812000  0.86844000  0.77066600  1
  O2-  O132  1  0.70812000  0.36844000  0.27066600  1
  O2-  O133  1  0.70812000  0.36844000  0.77066600  1
  O2-  O134  1  0.70812000  0.86844000  0.27066600  1
  O2-  O135  1  0.70812000  0.86844000  0.77066600  1
  O2-  O136  1  0.45812000  0.36844000  0.02066600  1
  O2-  O137  1  0.45812000  0.36844000  0.52066600  1
  O2-  O138  1  0.45812000  0.86844000  0.02066600  1
  O2-  O139  1  0.45812000  0.86844000  0.52066600  1
  O2-  O140  1  0.95812000  0.36844000  0.02066600  1
  O2-  O141  1  0.95812100  0.36844000  0.52066600  1
  O2-  O142  1  0.95812100  0.86844000  0.02066600  1
  O2-  O143  1  0.95812000  0.86844000  0.52066600  1
  O2-  O144  1  0.20812000  0.11844000  0.02066600  1
  O2-  O145  1  0.20812000  0.11844000  0.52066600  1
  O2-  O146  1  0.20812000  0.61844000  0.02066600  1
  O2-  O147  1  0.20812000  0.61844000  0.52066600  1
  O2-  O148  1  0.70812000  0.11844000  0.02066600  1
  O2-  O149  1  0.70812100  0.11844000  0.52066600  1
  O2-  O150  1  0.70812100  0.61844000  0.02066600  1
  O2-  O151  1  0.70812100  0.61844000  0.52066600  1
  O2-  O152  1  0.45812000  0.11844000  0.27066600  1
  O2-  O153  1  0.45812000  0.11844000  0.77066600  1
  O2-  O154  1  0.45812000  0.61844000  0.27066600  1
  O2-  O155  1  0.45812000  0.61844000  0.77066600  1
  O2-  O156  1  0.95812000  0.11844000  0.27066600  1
  O2-  O157  1  0.95812000  0.11844000  0.77066600  1
  O2-  O158  1  0.95812100  0.61844000  0.27066600  1
  O2-  O159  1  0.95812100  0.61844000  0.77066600  1
  O2-  O160  1  0.27066700  0.20812100  0.36843900  1
  O2-  O161  1  0.27066700  0.20812100  0.86843900  1
  O2-  O162  1  0.27066700  0.70812100  0.36843900  1
  O2-  O163  1  0.27066700  0.70812100  0.86843900  1
  O2-  O164  1  0.77066700  0.20812100  0.36843900  1
  O2-  O165  1  0.77066700  0.20812000  0.86843900  1
  O2-  O166  1  0.77066700  0.70812100  0.36843900  1
  O2-  O167  1  0.77066700  0.70812100  0.86843900  1
  O2-  O168  1  0.02066700  0.20812000  0.11843900  1
  O2-  O169  1  0.02066700  0.20812100  0.61843900  1
  O2-  O170  1  0.02066700  0.70812000  0.11843900  1
  O2-  O171  1  0.02066700  0.70812000  0.61843900  1
  O2-  O172  1  0.52066700  0.20812000  0.11843900  1
  O2-  O173  1  0.52066700  0.20812100  0.61843900  1
  O2-  O174  1  0.52066700  0.70812100  0.11843900  1
  O2-  O175  1  0.52066700  0.70812100  0.61843900  1
  O2-  O176  1  0.27066700  0.45812100  0.11843900  1
  O2-  O177  1  0.27066700  0.45812100  0.61843900  1
  O2-  O178  1  0.27066700  0.95812100  0.11843900  1
  O2-  O179  1  0.27066700  0.95812100  0.61843900  1
  O2-  O180  1  0.77066700  0.45812100  0.11843900  1
  O2-  O181  1  0.77066700  0.45812100  0.61843900  1
  O2-  O182  1  0.77066700  0.95812100  0.11843900  1
  O2-  O183  1  0.77066700  0.95812100  0.61843900  1
  O2-  O184  1  0.02066700  0.45812100  0.36843900  1
  O2-  O185  1  0.02066700  0.45812100  0.86843900  1
  O2-  O186  1  0.02066700  0.95812100  0.36843900  1
  O2-  O187  1  0.02066700  0.95812100  0.86843900  1
  O2-  O188  1  0.52066700  0.45812100  0.36843900  1
  O2-  O189  1  0.52066700  0.45812100  0.86843900  1
  O2-  O190  1  0.52066700  0.95812100  0.36843900  1
  O2-  O191  1  0.52066700  0.95812100  0.86843900  1
  O2-  O192  1  0.36844000  0.27066600  0.20811900  1
  O2-  O193  1  0.36844000  0.27066600  0.70811900  1
  O2-  O194  1  0.36844000  0.77066600  0.20811900  1
  O2-  O195  1  0.36844000  0.77066600  0.70811900  1
  O2-  O196  1  0.86844000  0.27066600  0.20811900  1
  O2-  O197  1  0.86844000  0.27066600  0.70811900  1
  O2-  O198  1  0.86844000  0.77066600  0.20811900  1
  O2-  O199  1  0.86844000  0.77066600  0.70811900  1
  O2-  O200  1  0.11844000  0.27066600  0.45811900  1
  O2-  O201  1  0.11844000  0.27066600  0.95811900  1
  O2-  O202  1  0.11844000  0.77066600  0.45811900  1
  O2-  O203  1  0.11844000  0.77066600  0.95811900  1
  O2-  O204  1  0.61844000  0.27066600  0.45811900  1
  O2-  O205  1  0.61844000  0.27066600  0.95811900  1
  O2-  O206  1  0.61844000  0.77066600  0.45811900  1
  O2-  O207  1  0.61844000  0.77066600  0.95811900  1
  O2-  O208  1  0.36844000  0.02066600  0.45811900  1
  O2-  O209  1  0.36844000  0.02066600  0.95811900  1
  O2-  O210  1  0.36844000  0.52066600  0.45811900  1
  O2-  O211  1  0.36844000  0.52066600  0.95811900  1
  O2-  O212  1  0.86844000  0.02066600  0.45811900  1
  O2-  O213  1  0.86844000  0.02066600  0.95811900  1
  O2-  O214  1  0.86844000  0.52066600  0.45811900  1
  O2-  O215  1  0.86844000  0.52066600  0.95811900  1
  O2-  O216  1  0.11844000  0.02066600  0.20811900  1
  O2-  O217  1  0.11844000  0.02066600  0.70811900  1
  O2-  O218  1  0.11844000  0.52066600  0.20811900  1
  O2-  O219  1  0.11844000  0.52066600  0.70811900  1
  O2-  O220  1  0.61844000  0.02066600  0.20811900  1
  O2-  O221  1  0.61844000  0.02066600  0.70811900  1
  O2-  O222  1  0.61844000  0.52066600  0.20811900  1
  O2-  O223  1  0.61844000  0.52066600  0.70811900  1
  O2-  O224  1  0.20811900  0.27066600  0.11843900  1
  O2-  O225  1  0.20811900  0.27066600  0.61843900  1
  O2-  O226  1  0.20811900  0.77066600  0.11843900  1
  O2-  O227  1  0.20811900  0.77066600  0.61843900  1
  O2-  O228  1  0.70811900  0.27066600  0.11843900  1
  O2-  O229  1  0.70811900  0.27066600  0.61843900  1
  O2-  O230  1  0.70811900  0.77066600  0.11843900  1
  O2-  O231  1  0.70811900  0.77066600  0.61843900  1
  O2-  O232  1  0.45811900  0.27066600  0.36843900  1
  O2-  O233  1  0.45811900  0.27066600  0.86843900  1
  O2-  O234  1  0.45811900  0.77066600  0.36843900  1
  O2-  O235  1  0.45811900  0.77066600  0.86843900  1
  O2-  O236  1  0.95811900  0.27066600  0.36843900  1
  O2-  O237  1  0.95811900  0.27066600  0.86843900  1
  O2-  O238  1  0.95811900  0.77066600  0.36843900  1
  O2-  O239  1  0.95811900  0.77066600  0.86843900  1
  O2-  O240  1  0.20811900  0.02066600  0.36843900  1
  O2-  O241  1  0.20811900  0.02066600  0.86843900  1
  O2-  O242  1  0.20811900  0.52066600  0.36843900  1
  O2-  O243  1  0.20811900  0.52066600  0.86843900  1
  O2-  O244  1  0.70811900  0.02066600  0.36843900  1
  O2-  O245  1  0.70811900  0.02066600  0.86843900  1
  O2-  O246  1  0.70811900  0.52066600  0.36843900  1
  O2-  O247  1  0.70811900  0.52066600  0.86843900  1
  O2-  O248  1  0.45811900  0.02066600  0.11843900  1
  O2-  O249  1  0.45811900  0.02066600  0.61843900  1
  O2-  O250  1  0.45811900  0.52066600  0.11843900  1
  O2-  O251  1  0.45811900  0.52066600  0.61843900  1
  O2-  O252  1  0.95811900  0.02066600  0.11843900  1
  O2-  O253  1  0.95811900  0.02066600  0.61843900  1
  O2-  O254  1  0.95811900  0.52066600  0.11843900  1
  O2-  O255  1  0.95811900  0.52066600  0.61843900  1
  O2-  O256  1  0.11843900  0.20812100  0.27066600  1
  O2-  O257  1  0.11843900  0.20812100  0.77066700  1
  O2-  O258  1  0.11843900  0.70812100  0.27066600  1
  O2-  O259  1  0.11843900  0.70812100  0.77066700  1
  O2-  O260  1  0.61843900  0.20812100  0.27066700  1
  O2-  O261  1  0.61843900  0.20812100  0.77066600  1
  O2-  O262  1  0.61843900  0.70812100  0.27066700  1
  O2-  O263  1  0.61843900  0.70812100  0.77066600  1
  O2-  O264  1  0.36843900  0.20812100  0.02066600  1
  O2-  O265  1  0.36843900  0.20812100  0.52066700  1
  O2-  O266  1  0.36843900  0.70812100  0.02066700  1
  O2-  O267  1  0.36843900  0.70812100  0.52066700  1
  O2-  O268  1  0.86843900  0.20812100  0.02066600  1
  O2-  O269  1  0.86843900  0.20812100  0.52066600  1
  O2-  O270  1  0.86843900  0.70812100  0.02066700  1
  O2-  O271  1  0.86843900  0.70812100  0.52066700  1
  O2-  O272  1  0.11843900  0.45812100  0.02066700  1
  O2-  O273  1  0.11843900  0.45812100  0.52066700  1
  O2-  O274  1  0.11843900  0.95812100  0.02066700  1
  O2-  O275  1  0.11843900  0.95812100  0.52066600  1
  O2-  O276  1  0.61843900  0.45812100  0.02066600  1
  O2-  O277  1  0.61843900  0.45812100  0.52066700  1
  O2-  O278  1  0.61843900  0.95812100  0.02066600  1
  O2-  O279  1  0.61843900  0.95812100  0.52066600  1
  O2-  O280  1  0.36843900  0.45812100  0.27066700  1
  O2-  O281  1  0.36843900  0.45812100  0.77066700  1
  O2-  O282  1  0.36843900  0.95812100  0.27066700  1
  O2-  O283  1  0.36843900  0.95812100  0.77066700  1
  O2-  O284  1  0.86843900  0.45812100  0.27066700  1
  O2-  O285  1  0.86843900  0.45812100  0.77066700  1
  O2-  O286  1  0.86843900  0.95812100  0.27066600  1
  O2-  O287  1  0.86843900  0.95812100  0.77066700  1
  O2-  O288  1  0.27066600  0.11844000  0.20811900  1
  O2-  O289  1  0.27066600  0.11844000  0.70811900  1
  O2-  O290  1  0.27066600  0.61844000  0.20811900  1
  O2-  O291  1  0.27066600  0.61844000  0.70812000  1
  O2-  O292  1  0.77066600  0.11844000  0.20811900  1
  O2-  O293  1  0.77066600  0.11844000  0.70811900  1
  O2-  O294  1  0.77066600  0.61844000  0.20811900  1
  O2-  O295  1  0.77066600  0.61844000  0.70811900  1
  O2-  O296  1  0.02066600  0.11844000  0.45811900  1
  O2-  O297  1  0.02066600  0.11844000  0.95811900  1
  O2-  O298  1  0.02066500  0.61844000  0.45811900  1
  O2-  O299  1  0.02066600  0.61844000  0.95811900  1
  O2-  O300  1  0.52066500  0.11844000  0.45811900  1
  O2-  O301  1  0.52066500  0.11844000  0.95811900  1
  O2-  O302  1  0.52066500  0.61844000  0.45811900  1
  O2-  O303  1  0.52066600  0.61844000  0.95811900  1
  O2-  O304  1  0.27066600  0.36844000  0.45811900  1
  O2-  O305  1  0.27066600  0.36844000  0.95812000  1
  O2-  O306  1  0.27066600  0.86844000  0.45811900  1
  O2-  O307  1  0.27066600  0.86844000  0.95811900  1
  O2-  O308  1  0.77066600  0.36844000  0.45812000  1
  O2-  O309  1  0.77066600  0.36844000  0.95811900  1
  O2-  O310  1  0.77066600  0.86844000  0.45811900  1
  O2-  O311  1  0.77066600  0.86844000  0.95812000  1
  O2-  O312  1  0.02066600  0.36844000  0.20812000  1
  O2-  O313  1  0.02066600  0.36844000  0.70811900  1
  O2-  O314  1  0.02066600  0.86844000  0.20811900  1
  O2-  O315  1  0.02066600  0.86844000  0.70811900  1
  O2-  O316  1  0.52066600  0.36844000  0.20812000  1
  O2-  O317  1  0.52066600  0.36844000  0.70811900  1
  O2-  O318  1  0.52066600  0.86844000  0.20811900  1
  O2-  O319  1  0.52066600  0.86844000  0.70811900  1
