# generated using pymatgen
data_Li91Ta33O128
_symmetry_space_group_name_H-M   'P 1'
_cell_length_a   12.01244176
_cell_length_b   12.01244147
_cell_length_c   18.59128871
_cell_angle_alpha   71.24647132
_cell_angle_beta   108.75351929
_cell_angle_gamma   89.91177050
_symmetry_Int_Tables_number   1
_chemical_formula_structural   Li91Ta33O128
_chemical_formula_sum   'Li91 Ta33 O128'
_cell_volume   2388.89520635
_cell_formula_units_Z   1
loop_
 _symmetry_equiv_pos_site_id
 _symmetry_equiv_pos_as_xyz
  1  'x, y, z'
loop_
 _atom_type_symbol
 _atom_type_oxidation_number
  Li+  1.0
  Ta5+  5.0
  O2-  -2.0
loop_
 _atom_site_type_symbol
 _atom_site_label
 _atom_site_symmetry_multiplicity
 _atom_site_fract_x
 _atom_site_fract_y
 _atom_site_fract_z
 _atom_site_occupancy
  Li+  Li0  1  0.28409600  0.09774600  0.44287000  1
  Li+  Li1  1  0.28409600  0.09774600  0.94287000  1
  Li+  Li2  1  0.28409600  0.59774600  0.94287000  1
  Li+  Li3  1  0.78409600  0.09774600  0.44287000  1
  Li+  Li4  1  0.78409600  0.09774600  0.94287000  1
  Li+  Li5  1  0.78409600  0.59774600  0.44287000  1
  Li+  Li6  1  0.78409600  0.59774600  0.94287000  1
  Li+  Li7  1  0.09774600  0.28409600  0.30713000  1
  Li+  Li8  1  0.09774600  0.28409600  0.80713000  1
  Li+  Li9  1  0.09774600  0.78409600  0.30713000  0.42857
  Li+  Li10  1  0.09774600  0.78409600  0.80713000  1
  Li+  Li11  1  0.59774600  0.28409600  0.30713000  1
  Li+  Li12  1  0.59774600  0.28409600  0.80713000  1
  Li+  Li13  1  0.59774600  0.78409600  0.30713000  1
  Li+  Li14  1  0.59774600  0.78409600  0.80713000  1
  Li+  Li15  1  0.21590400  0.40225400  0.05713000  1
  Li+  Li16  1  0.21590400  0.40225400  0.55713000  0.42857
  Li+  Li17  1  0.21590400  0.90225400  0.05713000  1
  Li+  Li18  1  0.21590500  0.90225400  0.55713000  1
  Li+  Li19  1  0.71590400  0.40225400  0.05713000  1
  Li+  Li20  1  0.71590400  0.40225400  0.55713000  1
  Li+  Li21  1  0.71590500  0.90225400  0.05713000  1
  Li+  Li22  1  0.71590500  0.90225400  0.55713000  1
  Li+  Li23  1  0.40225400  0.21590400  0.19287000  1
  Li+  Li24  1  0.40225400  0.21590400  0.69287000  1
  Li+  Li25  1  0.40225400  0.71590500  0.19287000  1
  Li+  Li26  1  0.40225400  0.71590500  0.69287000  1
  Li+  Li27  1  0.90225400  0.21590500  0.19287000  1
  Li+  Li28  1  0.90225400  0.21590500  0.69287000  1
  Li+  Li29  1  0.90225400  0.71590500  0.19287000  1
  Li+  Li30  1  0.90225400  0.71590500  0.69287000  1
  Li+  Li31  1  0.17756600  0.21946500  0.18742000  1
  Li+  Li32  1  0.17756600  0.21946500  0.68742000  1
  Li+  Li33  1  0.17756500  0.71946500  0.18742000  1
  Li+  Li34  1  0.17756500  0.71946500  0.68742000  1
  Li+  Li35  1  0.67756600  0.21946500  0.18742000  1
  Li+  Li36  1  0.67756600  0.21946500  0.68742000  1
  Li+  Li37  1  0.67756600  0.71946500  0.18742000  1
  Li+  Li38  1  0.67756600  0.71946500  0.68742000  1
  Li+  Li39  1  0.21946500  0.17756600  0.06258000  1
  Li+  Li40  1  0.21946500  0.17756600  0.56258000  1
  Li+  Li41  1  0.21946500  0.67756600  0.06258000  1
  Li+  Li42  1  0.21946500  0.67756600  0.56258000  0.42857
  Li+  Li43  1  0.71946500  0.17756500  0.06258000  1
  Li+  Li44  1  0.71946500  0.17756500  0.56258000  1
  Li+  Li45  1  0.71946500  0.67756600  0.06258000  1
  Li+  Li46  1  0.71946500  0.67756500  0.56258000  1
  Li+  Li47  1  0.32243500  0.28053500  0.31258000  1
  Li+  Li48  1  0.32243500  0.28053500  0.81258000  1
  Li+  Li49  1  0.32243500  0.78053500  0.31258000  0.42857
  Li+  Li50  1  0.32243500  0.78053500  0.81258000  1
  Li+  Li51  1  0.82243500  0.28053500  0.31258000  1
  Li+  Li52  1  0.82243500  0.28053500  0.81258000  1
  Li+  Li53  1  0.82243500  0.78053500  0.31258000  1
  Li+  Li54  1  0.82243500  0.78053500  0.81258000  1
  Li+  Li55  1  0.28053500  0.32243500  0.43742000  1
  Li+  Li56  1  0.28053500  0.32243500  0.93742000  1
  Li+  Li57  1  0.28053500  0.82243500  0.43742000  0.42857
  Li+  Li58  1  0.28053500  0.82243500  0.93742000  1
  Li+  Li59  1  0.78053500  0.32243500  0.43742000  1
  Li+  Li60  1  0.78053500  0.32243500  0.93742000  1
  Li+  Li61  1  0.78053500  0.82243500  0.43742000  1
  Li+  Li62  1  0.78053500  0.82243500  0.93742000  1
  Li+  Li63  1  0.02904700  0.34758100  0.43215400  1
  Li+  Li64  1  0.02904700  0.34758100  0.93215400  1
  Li+  Li65  1  0.02904700  0.84758100  0.43215400  1
  Li+  Li66  1  0.02904700  0.84758100  0.93215400  1
  Li+  Li67  1  0.52904700  0.34758100  0.43215400  1
  Li+  Li68  1  0.52904700  0.34758100  0.93215400  1
  Li+  Li69  1  0.52904600  0.84758100  0.43215400  1
  Li+  Li70  1  0.52904700  0.84758100  0.93215400  1
  Li+  Li71  1  0.34758100  0.02904700  0.31784600  1
  Li+  Li72  1  0.34758100  0.02904700  0.81784600  1
  Li+  Li73  1  0.34758100  0.52904600  0.31784700  0.42857
  Li+  Li74  1  0.34758100  0.52904600  0.81784700  1
  Li+  Li75  1  0.84758100  0.02904700  0.31784600  1
  Li+  Li76  1  0.84758100  0.02904700  0.81784600  1
  Li+  Li77  1  0.84758100  0.52904600  0.31784700  1
  Li+  Li78  1  0.84758100  0.52904600  0.81784700  1
  Li+  Li79  1  0.47095300  0.15241900  0.06784600  1
  Li+  Li80  1  0.47095300  0.15241900  0.56784600  1
  Li+  Li81  1  0.47095300  0.65241900  0.06784600  1
  Li+  Li82  1  0.47095300  0.65241900  0.56784600  0.42857
  Li+  Li83  1  0.97095300  0.15241900  0.06784600  1
  Li+  Li84  1  0.97095300  0.15241900  0.56784600  1
  Li+  Li85  1  0.97095400  0.65241900  0.06784600  1
  Li+  Li86  1  0.97095400  0.65241900  0.56784600  1
  Li+  Li87  1  0.15241900  0.47095300  0.18215400  1
  Li+  Li88  1  0.15241900  0.47095300  0.68215400  1
  Li+  Li89  1  0.15241900  0.97095400  0.18215400  1
  Li+  Li90  1  0.15241900  0.97095400  0.68215400  1
  Li+  Li91  1  0.65241900  0.47095300  0.18215400  1
  Li+  Li92  1  0.65241900  0.47095300  0.68215400  1
  Li+  Li93  1  0.65241900  0.97095400  0.18215400  1
  Li+  Li94  1  0.65241900  0.97095400  0.68215400  1
  Ta5+  Ta95  1  0.28409600  0.59774600  0.44287000  1
  Ta5+  Ta96  1  0.38947400  0.46889700  0.18763600  1
  Ta5+  Ta97  1  0.38947400  0.46889700  0.68763600  1
  Ta5+  Ta98  1  0.38947100  0.96890800  0.18763300  1
  Ta5+  Ta99  1  0.38947100  0.96890800  0.68763300  1
  Ta5+  Ta100  1  0.88947600  0.46889600  0.18763700  1
  Ta5+  Ta101  1  0.88947700  0.46889600  0.68763700  1
  Ta5+  Ta102  1  0.88947400  0.96890700  0.18763400  1
  Ta5+  Ta103  1  0.88947300  0.96890700  0.68763400  1
  Ta5+  Ta104  1  0.46890000  0.38947100  0.06236500  1
  Ta5+  Ta105  1  0.46890000  0.38947100  0.56236600  1
  Ta5+  Ta106  1  0.46889800  0.88947700  0.06236300  1
  Ta5+  Ta107  1  0.46889800  0.88947700  0.56236300  1
  Ta5+  Ta108  1  0.96890600  0.38947100  0.06236700  1
  Ta5+  Ta109  1  0.96890600  0.38947100  0.56236700  1
  Ta5+  Ta110  1  0.96890400  0.88947600  0.06236500  1
  Ta5+  Ta111  1  0.96890400  0.88947600  0.56236400  1
  Ta5+  Ta112  1  0.11052700  0.03110100  0.31236500  1
  Ta5+  Ta113  1  0.11052700  0.03110200  0.81236500  1
  Ta5+  Ta114  1  0.11052800  0.53109100  0.31236700  1
  Ta5+  Ta115  1  0.11052800  0.53109100  0.81236700  1
  Ta5+  Ta116  1  0.61052300  0.03110300  0.31236300  1
  Ta5+  Ta117  1  0.61052300  0.03110300  0.81236300  1
  Ta5+  Ta118  1  0.61052500  0.53109200  0.31236600  1
  Ta5+  Ta119  1  0.61052500  0.53109200  0.81236600  1
  Ta5+  Ta120  1  0.03109900  0.11052800  0.43763400  1
  Ta5+  Ta121  1  0.03109900  0.11052900  0.93763400  1
  Ta5+  Ta122  1  0.03110100  0.61052200  0.43763600  1
  Ta5+  Ta123  1  0.03110100  0.61052200  0.93763600  1
  Ta5+  Ta124  1  0.53109300  0.11052900  0.43763300  1
  Ta5+  Ta125  1  0.53109300  0.11053000  0.93763300  1
  Ta5+  Ta126  1  0.53109500  0.61052300  0.43763500  1
  Ta5+  Ta127  1  0.53109500  0.61052300  0.93763500  1
  O2-  O128  1  0.35513900  0.02108000  0.06868400  1
  O2-  O129  1  0.35513900  0.02108000  0.56868400  1
  O2-  O130  1  0.35513800  0.52108200  0.06868300  1
  O2-  O131  1  0.35513800  0.52108200  0.56868300  1
  O2-  O132  1  0.85513800  0.02108100  0.06868300  1
  O2-  O133  1  0.85513800  0.02108100  0.56868300  1
  O2-  O134  1  0.85513800  0.52108300  0.06868200  1
  O2-  O135  1  0.85513700  0.52108300  0.56868200  1
  O2-  O136  1  0.02108100  0.35513900  0.18131600  1
  O2-  O137  1  0.02108100  0.35513900  0.68131600  1
  O2-  O138  1  0.02108100  0.85513800  0.18131700  1
  O2-  O139  1  0.02108100  0.85513800  0.68131700  1
  O2-  O140  1  0.52108200  0.35513900  0.18131700  1
  O2-  O141  1  0.52108200  0.35513900  0.68131700  1
  O2-  O142  1  0.52108200  0.85513700  0.18131800  1
  O2-  O143  1  0.52108300  0.85513700  0.68131800  1
  O2-  O144  1  0.14486100  0.47892000  0.43131600  1
  O2-  O145  1  0.14486100  0.47892000  0.93131600  1
  O2-  O146  1  0.14486100  0.97891800  0.43131700  1
  O2-  O147  1  0.14486100  0.97891800  0.93131700  1
  O2-  O148  1  0.64486200  0.47892000  0.43131700  1
  O2-  O149  1  0.64486200  0.47892000  0.93131700  1
  O2-  O150  1  0.64486300  0.97891800  0.43131800  1
  O2-  O151  1  0.64486300  0.97891800  0.93131800  1
  O2-  O152  1  0.47892000  0.14486100  0.31868400  1
  O2-  O153  1  0.47892000  0.14486100  0.81868400  1
  O2-  O154  1  0.47891900  0.64486300  0.31868300  1
  O2-  O155  1  0.47891900  0.64486300  0.81868300  1
  O2-  O156  1  0.97891800  0.14486100  0.31868300  1
  O2-  O157  1  0.97891900  0.14486100  0.81868300  1
  O2-  O158  1  0.97891800  0.64486300  0.31868200  1
  O2-  O159  1  0.97891800  0.64486300  0.81868200  1
  O2-  O160  1  0.21193400  0.15125400  0.30907700  1
  O2-  O161  1  0.21193400  0.15125400  0.80907700  1
  O2-  O162  1  0.21193700  0.65125900  0.30907600  1
  O2-  O163  1  0.21193700  0.65125900  0.80907600  1
  O2-  O164  1  0.71193500  0.15125500  0.30907700  1
  O2-  O165  1  0.71193500  0.15125500  0.80907700  1
  O2-  O166  1  0.71193800  0.65125900  0.30907600  1
  O2-  O167  1  0.71193800  0.65125900  0.80907600  1
  O2-  O168  1  0.15125500  0.21193400  0.44092300  1
  O2-  O169  1  0.15125500  0.21193400  0.94092300  1
  O2-  O170  1  0.15125700  0.71193600  0.44092300  1
  O2-  O171  1  0.15125700  0.71193600  0.94092300  1
  O2-  O172  1  0.65125700  0.21193600  0.44092400  1
  O2-  O173  1  0.65125700  0.21193600  0.94092400  1
  O2-  O174  1  0.65125800  0.71193700  0.44092400  1
  O2-  O175  1  0.65125900  0.71193700  0.94092400  1
  O2-  O176  1  0.28806600  0.34874600  0.19092300  1
  O2-  O177  1  0.28806600  0.34874600  0.69092300  1
  O2-  O178  1  0.28806400  0.84874200  0.19092400  1
  O2-  O179  1  0.28806400  0.84874200  0.69092400  1
  O2-  O180  1  0.78806600  0.34874500  0.19092300  1
  O2-  O181  1  0.78806600  0.34874500  0.69092300  1
  O2-  O182  1  0.78806300  0.84874100  0.19092400  1
  O2-  O183  1  0.78806300  0.84874100  0.69092400  1
  O2-  O184  1  0.34874500  0.28806600  0.05907700  1
  O2-  O185  1  0.34874500  0.28806600  0.55907700  1
  O2-  O186  1  0.34874400  0.78806500  0.05907700  1
  O2-  O187  1  0.34874400  0.78806500  0.55907700  1
  O2-  O188  1  0.84874300  0.28806500  0.05907600  1
  O2-  O189  1  0.84874300  0.28806500  0.55907600  1
  O2-  O190  1  0.84874200  0.78806400  0.05907600  1
  O2-  O191  1  0.84874200  0.78806400  0.55907600  1
  O2-  O192  1  0.08962800  0.28503400  0.06590100  1
  O2-  O193  1  0.08962800  0.28503400  0.56590100  1
  O2-  O194  1  0.08962900  0.78503300  0.06590100  1
  O2-  O195  1  0.08962900  0.78503300  0.56590100  1
  O2-  O196  1  0.58963000  0.28503200  0.06590100  1
  O2-  O197  1  0.58963100  0.28503200  0.56590100  1
  O2-  O198  1  0.58963200  0.78503100  0.06590100  1
  O2-  O199  1  0.58963300  0.78503000  0.56590100  1
  O2-  O200  1  0.28503400  0.08962700  0.18409900  1
  O2-  O201  1  0.28503400  0.08962700  0.68409900  1
  O2-  O202  1  0.28503100  0.58963200  0.18409900  1
  O2-  O203  1  0.28503100  0.58963200  0.68409900  1
  O2-  O204  1  0.78503400  0.08962800  0.18409900  1
  O2-  O205  1  0.78503400  0.08962800  0.68409900  1
  O2-  O206  1  0.78503000  0.58963300  0.18409900  1
  O2-  O207  1  0.78503000  0.58963300  0.68409900  1
  O2-  O208  1  0.41037300  0.21496600  0.43410000  1
  O2-  O209  1  0.41037300  0.21496600  0.93410000  1
  O2-  O210  1  0.41037100  0.71496800  0.43409900  1
  O2-  O211  1  0.41037100  0.71496800  0.93409900  1
  O2-  O212  1  0.91037000  0.21496800  0.43409900  1
  O2-  O213  1  0.91037000  0.21496800  0.93409900  1
  O2-  O214  1  0.91036800  0.71497000  0.43409900  1
  O2-  O215  1  0.91036800  0.71497000  0.93409900  1
  O2-  O216  1  0.21496600  0.41037300  0.31590000  1
  O2-  O217  1  0.21496600  0.41037300  0.81590000  1
  O2-  O218  1  0.21496800  0.91036900  0.31590100  1
  O2-  O219  1  0.21496800  0.91036900  0.81590100  1
  O2-  O220  1  0.71496700  0.41037200  0.31590100  1
  O2-  O221  1  0.71496700  0.41037200  0.81590100  1
  O2-  O222  1  0.71497000  0.91036700  0.31590100  1
  O2-  O223  1  0.71497000  0.91036700  0.81590100  1
  O2-  O224  1  0.47420000  0.41596700  0.30637200  1
  O2-  O225  1  0.47420000  0.41596700  0.80637200  1
  O2-  O226  1  0.47420100  0.91596400  0.30637300  1
  O2-  O227  1  0.47420100  0.91596400  0.80637300  1
  O2-  O228  1  0.97419900  0.41596700  0.30637100  1
  O2-  O229  1  0.97419900  0.41596700  0.80637100  1
  O2-  O230  1  0.97420000  0.91596400  0.30637200  1
  O2-  O231  1  0.97420000  0.91596400  0.80637200  1
  O2-  O232  1  0.41596600  0.47420000  0.44362800  1
  O2-  O233  1  0.41596600  0.47420000  0.94362800  1
  O2-  O234  1  0.41596700  0.97419800  0.44362900  1
  O2-  O235  1  0.41596700  0.97419900  0.94362900  1
  O2-  O236  1  0.91596400  0.47420100  0.44362700  1
  O2-  O237  1  0.91596400  0.47420100  0.94362700  1
  O2-  O238  1  0.91596500  0.97419900  0.44362800  1
  O2-  O239  1  0.91596500  0.97419900  0.94362800  1
  O2-  O240  1  0.02580000  0.08403300  0.19362800  1
  O2-  O241  1  0.02580000  0.08403400  0.69362800  1
  O2-  O242  1  0.02580000  0.58403600  0.19362700  1
  O2-  O243  1  0.02580000  0.58403600  0.69362700  1
  O2-  O244  1  0.52580100  0.08403300  0.19362900  1
  O2-  O245  1  0.52580100  0.08403300  0.69362900  1
  O2-  O246  1  0.52580000  0.58403600  0.19362700  1
  O2-  O247  1  0.52580000  0.58403600  0.69362700  1
  O2-  O248  1  0.08403400  0.02580000  0.05637200  1
  O2-  O249  1  0.08403400  0.02580000  0.55637200  1
  O2-  O250  1  0.08403400  0.52580200  0.05637100  1
  O2-  O251  1  0.08403400  0.52580200  0.55637100  1
  O2-  O252  1  0.58403600  0.02579900  0.05637300  1
  O2-  O253  1  0.58403600  0.02579900  0.55637300  1
  O2-  O254  1  0.58403500  0.52580100  0.05637200  1
  O2-  O255  1  0.58403500  0.52580100  0.55637200  1
